/*--------------------------------*- C++ -*----------------------------------*\
| =========                 |                                                 |
| \\      /  F ield         | OpenFOAM: The Open Source CFD Toolbox           |
|  \\    /   O peration     | Version:  5.0                                   |
|   \\  /    A nd           | Web:      http://www.cfdyna.com                 |
|    \\/     M anipulation  |                                                 |
\*---------------------------------------------------------------------------*/
FoamFile
{
    version     2.0;
    format      ascii;
    class       dictionary;
    object      blockMeshDict;
}
// * * * * * * * * * * * * * * * * * * * * * * * * * * * * * * * * * * * * * //

convertToMeters 1e-2;

length 200;
height 4;
highDensityRegion 1;

vertices
(
    (0          #calc "-1.0*$height/2.0"                        -0.5) // 0
    (0          #calc "-1.0*($height/2.0 - $highDensityRegion)" -0.5) // 1
    (0          #calc "-1.0*$height/2.0"                         0.5) // 2
    (0          #calc "-1.0*($height/2.0 - $highDensityRegion)"  0.5) // 3
    (0          #calc "$height/2.0"                              0.5) // 4
    (0          #calc "($height/2.0 - $highDensityRegion)"       0.5) // 5
    (0          #calc "$height/2.0"                             -0.5) // 6
    (0          #calc "($height/2.0 - $highDensityRegion)"      -0.5) // 7
    ($length    #calc "-1.0*$height/2.0"                        -0.5) // 8
    ($length    #calc "-1.0*($height/2.0 - $highDensityRegion)" -0.5) // 9
    ($length    #calc "-1.0*$height/2.0"                         0.5) // 10
    ($length    #calc "-1.0*($height/2.0 - $highDensityRegion)"  0.5) // 11
    ($length    #calc "$height/2.0"                              0.5) // 12
    ($length    #calc "($height/2.0 - $highDensityRegion)"       0.5) // 13
    ($length    #calc "$height/2.0"                             -0.5) // 14
    ($length    #calc "($height/2.0 - $highDensityRegion)"      -0.5) // 15
);

blocks
(
    hex (7 15 14 6 5 13 12 4) (20 70 1) simpleGrading (1 0.002 1)
    hex (1 9 15 7 3 11 13 5)  (20 70 1)  simpleGrading (1 1 1)
    hex (0 8 9 1 2 10 11 3)   (20 70 1) simpleGrading (1 500 1)
);

edges
(
);

boundary
(
    inlet
    {
        type patch;
        faces
        (
            (0 2 3 1)
            (1 3 5 7)
            (7 5 4 6)
        );
    }
    outlet
    {
        type patch;
        faces
        (
            (8 9 11 10)
            (9 15 13 11)
            (15 14 12 13)
        );
    }
    upperWall
    {
        type wall;
        faces
        (
            (4 12 14 6)
        );
    }
    lowerWall
    {
        type wall;
        faces
        (
            (0 8 10 2)
        );
    }
    frontAndBack
    {
        type empty;
        faces
        (
            (0 1 9 8)
            (1 7 15 9)
            (7 6 14 15)

            (10 11 3 2)
            (11 13 5 3)
            (13 12 4 5)
        );
    }

);

mergePatchPairs
(
);

// ************************************************************************* //
